   20
 
C      13.383932    9.4361385    0.125005
C      13.355066   10.4792713    0.124992
C      11.665705   13.4031051    0.125201
C      10.295280   13.4445121    0.125187
C       7.648957   12.4517288    0.124975
C       6.834018   11.4340188    0.125007
C       6.890635    8.4535581    0.124832
C       7.754070    7.4393590    0.124798
C      10.437855    6.4580434    0.125015
C      11.788886    7.4054108    0.124874
C      13.119465   11.4474908    1.363998
C      12.257495   12.4617929    1.364167
C       9.573672   13.4429102    1.364239
C       8.222807   12.4955145    1.364014
C       6.625693   10.4649062    1.363984
C       6.654170    9.4217657    1.363795
C       8.346072    6.4980504    1.363860
C       9.716140    6.4564986    1.364034
C      12.362515    7.4492118    1.363896
C      13.176268    8.670019    1.363948
